
     RDKit          3D

 40 43  0  0  0  0  0  0  0  0999 V2000
    1.7528   -1.7685   -1.7306 C   0  0  0  0  0  0  0  0  0  0  0  0
    2.8716   -2.4703   -1.0919 C   0  0  0  0  0  0  0  0  0  0  0  0
    3.2629   -3.6859   -1.5692 C   0  0  0  0  0  0  0  0  0  0  0  0
    2.5767   -4.2258   -2.6378 O   0  0  0  0  0  0  0  0  0  0  0  0
    4.3329   -4.3410   -0.9707 C   0  0  0  0  0  0  0  0  0  0  0  0
    4.9830   -3.7654    0.0867 C   0  0  0  0  0  0  0  0  0  0  0  0
    4.5682   -2.5520    0.5392 C   0  0  0  0  0  0  0  0  0  0  0  0
    3.5172   -1.8997   -0.0410 C   0  0  0  0  0  0  0  0  0  0  0  0
    3.1040   -0.5978    0.5211 C   0  0  0  0  0  0  0  0  0  0  0  0
    3.8578   -0.1201    1.3653 O   0  0  0  0  0  0  0  0  0  0  0  0
    1.8786    0.0402    0.0785 N   0  0  0  0  0  0  0  0  0  0  0  0
    1.7354    1.3931    0.8624 C   0  0  1  0  0  0  0  0  0  0  0  0
    1.0921    2.1459   -0.4037 C   0  0  0  0  0  0  0  0  0  0  0  0
    0.6646    3.7508   -0.2403 S   0  0  0  0  0  0  0  0  0  0  0  0
    1.8132    5.0365    0.0244 C   0  0  0  0  0  0  0  0  0  0  0  0
    1.4136    6.3573    0.1311 C   0  0  0  0  0  0  0  0  0  0  0  0
    2.3464    7.3420    0.3410 C   0  0  0  0  0  0  0  0  0  0  0  0
    3.6875    7.0027    0.4464 C   0  0  0  0  0  0  0  0  0  0  0  0
    4.0983    5.6956    0.3435 C   0  0  0  0  0  0  0  0  0  0  0  0
    3.1408    4.7424    0.1337 C   0  0  0  0  0  0  0  0  0  0  0  0
    0.3196    1.0181    1.7181 C   0  0  2  0  0  0  0  0  0  0  0  0
    0.8641   -0.2085    2.3869 O   0  0  0  0  0  0  0  0  0  0  0  0
   -0.5247    0.2542    0.5496 C   0  0  0  0  0  0  0  0  0  0  0  0
   -1.3596   -0.5108    1.2653 N   0  0  0  0  0  0  0  0  0  0  0  0
   -2.2792    0.2801    1.9485 C   0  0  0  0  0  0  0  0  0  0  0  0
   -3.6080    0.9198    1.3046 C   0  0  1  0  0  0  0  0  0  0  0  0
   -2.7544    1.9410    0.3997 C   0  0  0  0  0  0  0  0  0  0  0  0
   -3.6003    2.9371   -0.1600 C   0  0  0  0  0  0  0  0  0  0  0  0
   -3.9600    2.0584   -1.3852 C   0  0  0  0  0  0  0  0  0  0  0  0
   -4.7213    0.9508   -0.9689 C   0  0  0  0  0  0  0  0  0  0  0  0
   -4.0749   -0.1632    0.0009 C   0  0  1  0  0  0  0  0  0  0  0  0
   -2.6005   -0.2989   -0.6871 C   0  0  0  0  0  0  0  0  0  0  0  0
   -2.6802   -1.1145    0.7922 C   0  0  1  0  0  0  0  0  0  0  0  0
   -2.3874   -2.5770    0.3983 C   0  0  0  0  0  0  0  0  0  0  0  0
   -1.5683   -3.3201    0.3094 O   0  0  0  0  0  0  0  0  0  0  0  0
   -3.6937   -2.9109    0.0810 N   0  0  0  0  0  0  0  0  0  0  0  0
   -4.2899   -4.0564   -0.3649 C   0  0  0  0  0  0  0  0  0  0  0  0
   -3.7471   -4.5108   -1.7246 C   0  0  0  0  0  0  0  0  0  0  0  0
   -5.7243   -3.6302   -0.6550 C   0  0  0  0  0  0  0  0  0  0  0  0
   -4.3075   -5.1379    0.6173 C   0  0  0  0  0  0  0  0  0  0  0  0
  1  2  1  0
  2  3  2  0
  3  4  1  0
  3  5  1  0
  5  6  2  0
  6  7  1  0
  7  8  2  0
  8  9  1  0
  9 10  2  0
  9 11  1  0
 11 12  1  0
 12 13  1  6
 13 14  1  0
 14 15  1  0
 15 16  2  0
 16 17  1  0
 17 18  2  0
 18 19  1  0
 19 20  2  0
 12 21  1  0
 21 22  1  1
 21 23  1  0
 23 24  1  0
 24 25  1  0
 26 25  1  1
 26 27  1  0
 27 28  1  0
 28 29  1  0
 29 30  1  0
 31 30  1  6
 31 32  1  0
 32 33  1  0
 33 34  1  6
 34 35  2  0
 34 36  1  0
 36 37  1  0
 37 38  1  0
 37 39  1  0
 37 40  1  0
  8  2  1  0
 20 15  1  0
 33 24  1  0
 31 26  1  0
M  END
>  <zinc_id>  (1) 
ZINC000003833846

>  <smiles>  (1) 
Cc1c(O)cccc1C(=O)N[C@@H](CSc1ccccc1)[C@H](O)CN1C[C@H]2CCCC[C@H]2C[C@H]1C(=O)NC(C)(C)C

$$$$
